[TITLE]
OHIO RIVER
[JUNCTIONS]
;ID Elev Demand
;--------------------------
630013205 7.6 0
630013208 2.32 0
630013209 4.55 0
630013223 0.85 0
630013216 1.48 0
630013272 1.47 0
630013276 2.42 0
630015546 481.74 0
630015536 481.54 0
630015885 515.3 0
630015537 524.97 0
630015538 539.21 0
630015539 522.19 0
630015542 579.74 0
630015544 579.83 0
630015545 546.73 0
630015710 517.61 0
630015547 487.18 0
630015550 467.49 0
630015797 475.29 0
630015556 485.02 0
630015798 480.98 0
630015802 483.41 0
630015557 454.24 0
630015801 475.66 0
630015555 469.4 0
630015567 472.48 0
630015563 466.16 0
630015576 451.75 0
630015568 462.98 0
630015564 475.29 0
630015562 447 0
630015570 471.58 0
630015808 463.32 0
630015583 455.14 0
630015561 496.04 0
630015580 446.95 0
630015574 497.44 0
630015582 467.79 0
630015589 502.71 0
630015592 502.85 0
630015820 474.59 0
630015595 495.26 0
630015823 478.2 0
630015817 448.27 0
630015586 474 0
630015601 481.89 0
630015599 493.04 0
630015585 474.49 0
630015590 495.91 0
630015591 474.84 0
630015824 429.84 0
630015618 441.07 0
630015603 488.1 0
630015602 502.2 0
630015616 483.98 0
630015606 435.54 0
630015825 444.16 0
630015830 472.88 0
630015828 471.07 0
630015622 505.94 0
630015623 444.9 0
630015626 430.82 0
630015605 485.44 0
630015620 497.19 0
630015777 426.97 0
630015833 419.41 0
630015832 437.89 0
630015627 449.91 0
630015841 447.98 0
630015845 419.85 0
630015644 494.96 0
630015665 467.78 0
630015651 504.07 0
630015638 429.87 0
630015650 474.87 0
630015846 424.64 0
630015652 482.96 0
630015847 447.25 0
630015653 440.78 0
630015669 446.92 0
630015850 421.15 0
630015848 456.57 0
630015856 442.11 0
630015854 435.96 0
630015659 484.65 0
630015674 412.41 0
630015857 432.86 0
630015680 441.84 0
630015688 411.89 0
630015670 504.45 0
630015858 426.24 0
630015701 425.1 0
630015703 430.23 0
630015705 450.99 0
630015859 411.36 0
630015786 404.53 0
630015690 423.61 0
630015863 383.2 0
630015715 417.96 0
630015692 492.98 0
630015864 447.65 0
630015686 454.59 0
630015683 478.58 0
630015681 471.54 0
630015783 442.08 0
630015716 403.47 0
630015697 438.23 0
630015699 429.13 0
630015714 429.09 0
630015727 410.3 0
630015722 452.84 0
630015720 499.66 0
630015788 401.99 0
630015866 412.71 0
630015867 444.27 0
630015737 420.13 0
630015743 431.57 0
630015869 444.47 0
630015871 426.69 0
630015723 487.98 0
630015742 441.42 0
630015796 447.42 0
630015735 423.18 0
630015878 449.03 0
630015870 505.96 0
630015762 442.87 0
630015879 442.2 0
630015758 430.64 0
630015875 487.83 0
630015764 419.53 0
630015876 527.62 0
630015900 426.19 0
630015899 441.87 0
630015551 468.57 0
630015814 469.5 0
630015813 460.52 0
630015822 463.46 0
630015608 495.31 0
630015625 478.57 0
630015836 460.55 0
630015835 460.45 0
630015840 456.91 0
630015839 454.34 0
630015782 469.52 0
630015851 447.65 0
630015634 434.73 0
630015831 447.81 0
630015834 487.47 0
630015675 458.52 0
630015855 426.91 0
630015785 398.7 0
630015726 394.75 0
630015757 448.31 0
630015748 414.23 0
630015752 390.17 0
630015877 457.37 0
630015749 390.12 0
630015751 395.86 0
630015872 454.71 0
630015756 380.61 0
630015881 445.36 0
630015765 401.7 0
630015553 441.55 0
630015612 425.58 0
630015636 432.3 0
630015646 392.13 0
630015740 460.32 0
630015894 482 0
630015888 431.48 0
630015906 428.76 0
630015887 498.99 0
630016079 417.13 0
630015909 417.75 0
630016066 554.54 0
630015930 414.29 0
630016044 463.71 0
630016075 420.17 0
630015919 402.42 0
630016084 402.54 0
630015941 402.19 0
630016114 535.96 0
630015912 473.5 0
630016088 390.08 0
630015923 476.95 0
630016082 518.38 0
630016089 504.15 0
630015940 401.37 0
630016090 390.14 0
630015946 394.27 0
630016087 518.15 0
630016086 511.89 0
630015949 395.46 0
630015939 481.89 0
630015955 381.49 0
630015938 444.72 0
630016047 424.84 0
630015956 519.17 0
630016046 453.74 0
630015945 384.45 0
630015961 389.77 0
630015952 541.42 0
630016049 444.44 0
630015966 377.77 0
630015963 374.28 0
630015970 494.08 0
630015983 371.92 0
630016050 424.34 0
630015985 381.83 0
630015977 445.45 0
630016051 369.79 0
630015987 389.19 0
630015964 388.78 0
630015957 387.04 0
630015989 435.5 0
630015984 466.63 0
630015973 391.87 0
630016098 439.53 0
630016097 486.84 0
630015986 398.51 0
630015999 352.2 0
630016000 372.01 0
630015995 364.96 0
630016099 340.03 0
630015993 475.19 0
630016006 420.4 0
630016019 482.33 0
630015990 410.87 0
630015991 420.91 0
630016104 438.02 0
630016107 470.4 0
630016027 387.29 0
630016057 391.87 0
630016059 426.25 0
630016063 420.28 0
630016108 508.09 0
630016056 389.31 0
630016026 405.42 0
630016060 452.26 0
630016058 401.64 0
630016034 476.88 0
630016110 395.14 0
630016109 378.09 0
630016112 390.4 0
630016249 372.61 0
630016037 511.16 0
630016119 346.44 0
630016038 389.46 0
630016039 387.15 0
630016040 376.35 0
630016041 353.45 0
630016250 343.13 0
630015901 463.79 0
630015911 456.07 0
630015902 405.79 0
630016083 413.87 0
630015931 393.53 0
630015980 377.67 0
630015943 425.83 0
630015975 358.38 0
630015968 430.96 0
630015997 428.08 0
630016024 335.12 0
630016101 364.82 0
630016003 363.28 0
630016017 386.6 0
630016052 407.73 0
630015974 432.03 0
630015998 460.39 0
630016020 487.89 0
630015896 405.79 0
630015913 562.48 0
630015929 461.31 0
630016015 423.92 0
630016062 502.65 0
630016248 340.72 0
630016123 373.12 0
630016121 316.11 0
630016122 322.16 0
630016124 297.16 0
630016126 354.64 0
630016125 341.12 0
630016130 310.45 0
630016127 346.02 0
630016135 299.19 0
630016144 297.89 0
630016143 302.12 0
630016118 352.21 0
630016205 316.32 0
630016140 316.75 0
630016187 315.67 0
630016150 292.4 0
630016149 317.13 0
630016151 292.92 0
630016153 309.58 0
630016160 280.32 0
630016190 338.54 0
630016156 246.3 0
630016158 266.17 0
630016194 265.6 0
630016165 236.69 0
630016195 232.03 0
630016199 217.86 0
630016224 209.31 0
630016229 236.96 0
630016177 157.16 0
630016237 221.19 0
630016236 270.07 0
630016238 268.34 0
630016234 303.52 0
630016239 261.18 0
630016180 209.52 0
630016185 189.44 0
630016147 316.05 0
630016157 261.66 0
630016206 330.61 0
630016159 304.35 0
630016164 240.16 0
630016196 219.52 0
630016197 261.63 0
630016166 280.27 0
630016198 273.02 0
630016217 260.83 0
630016213 212.24 0
630016215 258.38 0
630016167 211.44 0
630016245 288.39 0
630016193 326.82 0
630016168 278.96 0
630016179 212.64 0
630016171 256.71 0
630016254 438.93 0
630016253 467.4 0
630016259 390.23 0
630016265 396.5 0
630016256 499.21 0
630016281 473.94 0
630016284 512.84 0
630016262 511.28 0
630016266 374.38 0
630016282 431.49 0
630016263 461.24 0
630016283 457.23 0
630016267 455.96 0
630016279 343.88 0
630016274 452.37 0
630016275 450.55 0
630016269 457.88 0
630016276 448.05 0
630016280 359.06 0
630016277 407.29 0
630016286 345.53 0
630016257 478.44 0
630016258 509.04 0
630016278 335.98 0
630016294 421.58 0
630016295 353.22 0
630016290 393.73 0
630016296 402.74 0
630016362 394.9 0
630016308 393.94 0
630016297 382.58 0
630016298 425.82 0
630016299 399.35 0
630016301 354.67 0
630016302 346.5 0
630016303 383.88 0
630016304 364.64 0
630016321 383.55 0
630016307 316.17 0
630016354 309.9 0
630016311 328.33 0
630016316 306.37 0
630016314 334.17 0
630016317 322.51 0
630016320 297.35 0
630016355 311.94 0
630016351 319.51 0
630016348 278.17 0
630016331 328.79 0
630016333 296.48 0
630016359 243.41 0
630016353 267.26 0
630016337 249.04 0
630016344 328.19 0
630016343 344.96 0
630016349 319.15 0
630016328 274.08 0
630016334 281.55 0
630016323 289.45 0
630016322 329.34 0
630016352 322.78 0
630016222 256.59 0
630016341 295.75 0
630016345 265.78 0
630016347 320.32 0
630016445 143.87 0
630016368 138.15 0
630016367 149.24 0
630016440 148.81 0
630016439 129.76 0
630016371 118.74 0
630016385 109.73 0
630016377 80.84 0
630016383 103.22 0
630016463 82.24 0
630016380 110.94 0
630016390 76.17 0
630016378 88.54 0
630016381 91.06 0
630016396 97.73 0
630016446 116.1 0
630016464 76.56 0
630016448 83.83 0
630016389 86.2 0
630016400 142.33 0
630016407 79.58 0
630016398 81.95 0
630016379 105.61 0
630016444 138.93 0
630016403 109.37 0
630016416 109.33 0
630016417 125.5 0
630016421 69.79 0
630016391 101.27 0
630016408 85.68 0
630016413 102.53 0
630016404 99.94 0
630016415 70.02 0
630016423 103.18 0
630016418 123.51 0
630016437 111.38 0
630016410 102.35 0
630016426 74.29 0
630016425 99.88 0
630016469 55.31 0
630016432 54.87 0
630016438 122.56 0
630016479 55.31 0
630016569 97.56 0
630016477 100.49 0
630016487 102.34 0
630016472 99.18 0
630016481 100.85 0
630016482 110.16 0
630016374 120.23 0
630016411 105.54 0
630016433 90.99 0
630016375 73.85 0
630016414 108.17 0
630016434 105.9 0
630016366 90.98 0
630016868 91.55 0
630016470 92.19 0
630016419 74.94 0
630016420 71.05 0
630016496 59.61 0
630016574 87.12 0
630016436 82.73 0
630016474 79.47 0
630016491 74.36 0
630016570 105.44 0
630016499 47.86 0
630016501 48.67 0
630016502 42.37 0
630016518 81.14 0
630016524 83.07 0
630016526 53.3 0
630016505 92.85 0
630016539 41.11 0
630016514 83.55 0
630016517 88.48 0
630016532 69.52 0
630016527 81.04 0
630016528 119.08 0
630016531 103.61 0
630016521 109.15 0
630016537 63.48 0
630016552 51.84 0
630016529 101.02 0
630016525 87.62 0
630016572 85.76 0
630016573 76.82 0
630016536 71.63 0
630016541 63.48 0
630016547 74.81 0
630016542 65.13 0
630016556 50.59 0
630016559 50.85 0
630016560 69.91 0
630016567 44.21 0
630016566 28.97 0
630016634 32.03 0
630016568 45.74 0
630016507 104.05 0
630016596 35.09 0
630016565 53.01 0
630016520 69.54 0
630016544 68.6 0
630016484 77.7 0
630016727 73.78 0
630016495 66.56 0
630016676 59.95 0
630016605 52.67 0
630016606 52.16 0
630016608 56.89 0
630016613 54.09 0
630016550 52.39 0
630016554 47.54 0
630016614 47.8 0
630016617 50.49 0
630016624 36.71 0
630016629 43.52 0
630016681 25.56 0
630016632 24.23 0
630016635 33.54 0
630016684 24.57 0
630016691 25.94 0
630016675 25.65 0
630016641 25.98 0
630016685 33.46 0
630016682 36.2 0
630016645 24.08 0
630016643 34.3 0
630016696 27.3 0
630016644 28.07 0
630016648 22.68 0
630016647 38.1 0
630016653 17.36 0
630016659 24.19 0
630016649 22.85 0
630016700 24.38 0
630016703 24.29 0
630016704 24.39 0
630016706 32.96 0
630016705 23.41 0
630016708 33.45 0
630016658 19.97 0
630016660 21.34 0
630016662 24.03 0
630016665 18.74 0
630016661 19.85 0
630016736 34.65 0
630016737 33.44 0
630016741 32.45 0
630016745 26.78 0
630016747 25.8 0
630016670 24.22 0
630016673 19.81 0
630016743 18.29 0
630016622 47.2 0
630016621 47.17 0
630016666 30.27 0
630016610 49.03 0
630016611 54.04 0
630016620 44.35 0
630016633 33.29 0
630016746 29.71 0
630016752 25.9 0
630016758 21.33 0
630016757 17 0
630016814 29.7 0
630016768 16.82 0
630016762 15.69 0
630016823 22.87 0
630016761 18.29 0
630016772 16.56 0
630016770 27.44 0
630016771 19.73 0
630016775 28.26 0
630016780 27.21 0
630016783 24.14 0
630016781 18.19 0
630016786 15.9 0
630016815 22.44 0
630016789 10.11 0
630016787 13.04 0
630016793 19.7 0
630016791 18.64 0
630016790 15.69 0
630016794 22.61 0
630016817 12.26 0
630016797 16.76 0
630016799 18.25 0
630016800 20.98 0
630016834 15.24 0
630016827 17.97 0
630016804 13.93 0
630016810 6.09 0
630016807 6.08 0
630016808 5.68 0
630016819 7.57 0
630016778 24.22 0
630016806 10.2 0
630016820 6.69 0
630022388 458.69 0
630022392 420.09 0
630022460 504.61 0
630047389 640.56 0
630022395 639.17 0
630022398 694.87 0
630022437 664.96 0
630022448 589.06 0
630022441 701.67 0
630022408 656.64 0
630022411 717.25 0
630022440 634.04 0
630022409 594.8 0
630022443 630.48 0
630022412 624.12 0
630022442 702.58 0
630022417 667.19 0
630022449 660.5 0
630022419 638.4 0
630022439 622.67 0
630022394 641.23 0
630022436 730.9 0
630022401 639.69 0
630022414 711.35 0
630022420 572.7 0
630022390 474.85 0
630022462 494.01 0
630022464 478.3 0
630022467 503.39 0
630022559 477.18 0
630022465 502.24 0
630022473 475.34 0
630022560 536.05 0
630022574 481.82 0
630022561 539.5 0
630022488 492.68 0
630022491 499.27 0
630022481 512.19 0
630022563 515.18 0
630022502 493.98 0
630022499 537.46 0
630022505 531.57 0
630022510 549.81 0
630022501 500.35 0
630022513 532.72 0
630022509 539.72 0
630022514 545.09 0
630022565 500.88 0
630022527 518.07 0
630022568 547.49 0
630022526 520.3 0
630022538 557.86 0
630022522 552.74 0
630022570 527.04 0
630022537 593.88 0
630022468 484.08 0
630022475 505.24 0
630022484 547.77 0
630022495 517.72 0
630022490 494.22 0
630022497 481.62 0
630022489 542.21 0
630022500 574.92 0
630022564 587.9 0
630022512 551.34 0
630022515 527.49 0
630022517 496.34 0
630022507 594.49 0
630022567 588.42 0
630022571 522.45 0
630022528 512.43 0
630022536 513.3 0
630022446 716.45 0
630022433 552.22 0
630022668 654.92 0
630022431 563.74 0
630022592 662.29 0
630022670 725.41 0
630022458 728.55 0
630022430 730.44 0
630022429 720.4 0
630022662 762.86 0
630022432 615.48 0
630022674 688.8 0
630022618 743.1 0
630022620 744.62 0
630022615 748.17 0
630022609 741.78 0
630022622 748.66 0
630022677 732.75 0
630022612 755.54 0
630022625 628.13 0
630022624 750.46 0
630022627 771.91 0
630022664 746.88 0
630022682 697.45 0
630022632 760.51 0
630022629 767.78 0
630022634 765.11 0
630022621 727.5 0
630022617 760.98 0
630022636 779.6 0
630022610 705.82 0
630022642 768.38 0
630022643 769.16 0
630022646 746.77 0
630022645 758.84 0
630022652 724.58 0
630022655 729.25 0
630022657 755.55 0
630022649 778.03 0
630022659 715.95 0
630022651 773.03 0
630022734 741.36 0
630022428 675.66 0
630022587 726.23 0
630022597 712.03 0
630022608 754.51 0
630022611 766.78 0
630022631 759.78 0
630022633 767.47 0
630022637 777.33 0
630022665 758.83 0
630022656 778.49 0
630022654 749.17 0
630022658 737.37 0
630022589 705.39 0
630022558 603.85 0
630022703 544.15 0
630022547 557.51 0
630022745 540.21 0
630022708 539.07 0
630022707 606.88 0
630022700 561.33 0
630022712 608.85 0
630022710 575.69 0
630022705 573.68 0
630022709 572.93 0
630022720 595.5 0
630022692 602.54 0
630022746 591.08 0
630022723 597.44 0
630022601 641.13 0
630022715 595.4 0
630022718 572.07 0
630022724 595.55 0
630022727 699.03 0
630022721 692.64 0
630022756 623.95 0
630022729 627.3 0
630022731 691.29 0
630022728 639.27 0
630022741 720.32 0
630022743 605.84 0
630022737 718.53 0
630022735 718.09 0
630022754 706.59 0
630022719 585.03 0
630022691 564.74 0
630022732 713.46 0
630022733 713.82 0
630022751 679.25 0
630022742 657.6 0
630022730 603.38 0
630022739 648.16 0
630022829 371.47 0
630022762 375.04 0
630022765 377.6 0
630022766 375.01 0
630022824 365.89 0
630022770 363.94 0
630022830 398.79 0
630022773 381.94 0
630022832 366.59 0
630022782 396.9 0
630022786 384.63 0
630022826 389.82 0
630022783 396.34 0
630022779 313.99 0
630022790 362.17 0
630022789 376.09 0
630022777 370.9 0
630022787 375.89 0
630022803 367.73 0
630022780 350.7 0
630022797 370.45 0
630022788 401.8 0
630022840 375.04 0
630022801 376.24 0
630022842 370.93 0
630022793 371.15 0
630022796 365.45 0
630022795 368.33 0
630022845 364.77 0
630022799 393.54 0
630022800 370.01 0
630022798 374.88 0
630022812 388.87 0
630022849 352.27 0
630022821 372.08 0
630022814 383.76 0
630022863 312.16 0
630022760 371.52 0
630022764 381.05 0
630022825 389.91 0
630022823 365.28 0
630022784 391.46 0
630022841 372.29 0
630022771 376.97 0
630023476 377.6 0
630023272 301.65 0
630022819 401.44 0
630022818 352.7 0
630023267 352.36 0
630023278 389.64 0
630022870 366.22 0
630023475 371.18 0
630023288 361.67 0
630023284 349.74 0
630022867 347.68 0
630022875 352.99 0
630023271 341.31 0
630022879 318.23 0
630022873 348.83 0
630022869 370.01 0
630022882 343.03 0
630022888 367.96 0
630023287 376.43 0
630023473 343.59 0
630022886 322.25 0
630023283 353.69 0
630022887 339.01 0
630022893 333.84 0
630022883 344.06 0
630022892 349.34 0
630022907 351.24 0
630022906 359.71 0
630023296 367.8 0
630022894 345.14 0
630022898 358.77 0
630022904 300.82 0
630022905 295.65 0
630022909 376.95 0
630022900 326.59 0
630023298 336.04 0
630022889 357.74 0
630022901 353.16 0
630023302 355.54 0
630023301 361.81 0
630023297 351.25 0
630023291 317.44 0
630022908 367.1 0
630022911 350.08 0
630022910 338.96 0
630022913 296.82 0
630022920 331.21 0
630022916 326.41 0
630022917 336.48 0
630023293 365.45 0
630022932 365.05 0
630022937 303.26 0
630022922 316.92 0
630022921 297.17 0
630022919 326.73 0
630023328 274.66 0
630022933 355.03 0
630022942 301.18 0
630022939 322.71 0
630022953 333.28 0
630022950 313.43 0
630022925 376.57 0
630022946 302.46 0
630023318 328.59 0
630022970 295.42 0
630022967 256.77 0
630022945 375.75 0
630022938 339.52 0
630022948 381.93 0
630022931 377.72 0
630023338 396.06 0
630023352 289.2 0
630022971 273.07 0
630022956 357.56 0
630022965 341.35 0
630022979 265.22 0
630022935 390.98 0
630023350 314.54 0
630023337 409.72 0
630022963 385.16 0
630023345 376.05 0
630023354 358.74 0
630022972 389.93 0
630022978 387.52 0
630023355 277.45 0
630023222 422.79 0
630022964 431.29 0
630022969 255.77 0
630022991 403.29 0
630022974 416.69 0
630022999 268.55 0
630023226 301.39 0
630023227 412.51 0
630022998 386.21 0
630023233 393.19 0
630023368 397.26 0
630023017 302.57 0
630023020 319.1 0
630023372 411.64 0
630023237 403.43 0
630023234 423.49 0
630023380 337.38 0
630023385 311.49 0
630023006 314.28 0
630023008 440.87 0
630023022 372.45 0
630023013 321.49 0
630023230 378.69 0
630023024 445.21 0
630023015 395.53 0
630023026 426.01 0
630023384 285.52 0
630023028 425.81 0
630023242 396.31 0
630023007 416.84 0
630023231 384 0
630023240 402.18 0
630023378 372.23 0
630023045 411.2 0
630023239 422.4 0
630023403 274.63 0
630023054 372.29 0
630023047 424.83 0
630023027 458.72 0
630023407 263.55 0
630023038 451.8 0
630023413 356.6 0
630023415 344.62 0
630023395 446.82 0
630023058 376.04 0
630023057 364.2 0
630023397 331.45 0
630023402 330.58 0
630023072 384.19 0
630023066 362.81 0
630023061 375.03 0
630023401 463.75 0
630023412 332.34 0
630023041 338.14 0
630023069 435.38 0
630023420 293.8 0
630023074 428.49 0
630023050 433.05 0
630023068 378.14 0
630023070 449.42 0
630023055 448.18 0
630023076 316.56 0
630023060 384.65 0
630023067 375.34 0
630023093 331.29 0
630023073 441.68 0
630023064 435.23 0
630023052 435.01 0
630023244 474.25 0
630023082 450.57 0
630023078 394.64 0
630023427 279.97 0
630023075 434.02 0
630023246 362.8 0
630023438 282.95 0
630023103 265.31 0
630023077 455.73 0
630023090 274.63 0
630023444 365.14 0
630023113 322.99 0
630023094 453.34 0
630023445 292.56 0
630023092 469.37 0
630023083 455.78 0
630023118 265.34 0
630023117 265.34 0
630023095 277.42 0
630023146 373.73 0
630023450 280.87 0
630023131 324.05 0
630023098 280.27 0
630023248 393.34 0
630023109 299.14 0
630023114 472.39 0
630023454 339.83 0
630023141 435.06 0
630023128 303.62 0
630023107 466.7 0
630023158 381.07 0
630023584 271.42 0
630023143 408.1 0
630023176 442.98 0
630023134 292.77 0
630023159 386.99 0
630023455 298.38 0
630023142 297.13 0
630023129 470.51 0
630023138 285.76 0
630023252 331.39 0
630023160 348.68 0
630023140 482.02 0
630023145 306.83 0
630023170 466.92 0
630023166 469.63 0
630023110 305.06 0
630023169 367.66 0
630023453 301.81 0
630023174 338.58 0
630023161 358.53 0
630023462 303.39 0
630023156 310.99 0
630023460 322.53 0
630023458 314.99 0
630023193 451.83 0
630023199 318.97 0
630023457 463.55 0
630023187 316.01 0
630023182 451.99 0
630023257 358.43 0
630023200 300.23 0
630023163 317.14 0
630023190 431.42 0
630023186 318.71 0
630023208 313.2 0
630022868 356.64 0
630022874 319 0
630022885 326.3 0
630022924 377.89 0
630023319 310.94 0
630022928 337.02 0
630023223 371.27 0
630022960 368.73 0
630023010 301.9 0
630023367 311.04 0
630023005 292.26 0
630022968 367.67 0
630022993 387.94 0
630022984 335.11 0
630022966 361.88 0
630022982 401.51 0
630023003 408.3 0
630023359 403.74 0
630022977 397.17 0
630023238 411.66 0
630023009 354.7 0
630023381 273.64 0
630023034 325.83 0
630023037 450.04 0
630023243 425.18 0
630023043 427.12 0
630023089 351.73 0
630023085 461.53 0
630023422 463.77 0
630023079 448.47 0
630023179 383.65 0
630023197 344.43 0
630022872 346.43 0
630022896 365.32 0
630022876 316.06 0
630022895 340.56 0
630022943 307.39 0
630022941 264.81 0
630022995 394.88 0
630022987 324.21 0
630023229 279.01 0
630023235 380.83 0
630022996 272.63 0
630023021 388.46 0
630023023 403.07 0
630023033 257.23 0
630023030 377.08 0
630023053 345.12 0
630023051 250.33 0
630023071 449.21 0
630023065 322.1 0
630023080 426.2 0
630023245 281.11 0
630023108 285.99 0
630023130 286.96 0
630023137 350.03 0
630023125 315.28 0
630023247 283.15 0
630023147 303.87 0
630023132 299.82 0
630023250 316.5 0
630023152 277.83 0
630023255 300.68 0
630023172 267.84 0
630023189 297.61 0
630023202 317.94 0
630023201 311.91 0
630023478 367.65 0
630023479 362.32 0
630023557 390.34 0
630023482 370.9 0
630023483 336.66 0
630023467 355.16 0
630023485 383.62 0
630023486 335.04 0
630023487 338.54 0
630023559 369.72 0
630023770 274.94 0
630023228 327.82 0
630023493 341.89 0
630023497 319.77 0
630023561 294.68 0
630023500 334.17 0
630023504 302.44 0
630023503 275.06 0
630023509 253.14 0
630023512 276.85 0
630023508 288.39 0
630023567 295.29 0
630023582 345.2 0
630023568 252.57 0
630023519 337.01 0
630023566 249.95 0
630023586 266.17 0
630023574 249.13 0
630023581 253.18 0
630023521 259.49 0
630023598 264.81 0
630023600 261.33 0
630023556 342.3 0
630023526 310.46 0
630023603 262.41 0
630023524 264.63 0
630023606 254.86 0
630023609 325.3 0
630023611 338.79 0
630023610 261.65 0
630023537 322.98 0
630023522 297.39 0
630023774 296.37 0
630023548 288.82 0
630023525 287.47 0
630023615 258.93 0
630023547 320.1 0
630023616 264.7 0
630023529 292.72 0
630023534 287.46 0
630023551 271 0
630023490 347.29 0
630023494 340.13 0
630023510 313.58 0
630023514 292.19 0
630023520 320.62 0
630023491 248.18 0
630023541 249.39 0
630023550 225.7 0
630023210 350.93 0
630023209 363.72 0
630023684 410.99 0
630023621 419.68 0
630023625 347.25 0
630023693 322.34 0
630023694 319.95 0
630023215 323.48 0
630023695 320.14 0
630023630 430.71 0
630023217 350.85 0
630023696 371.42 0
630023626 421.03 0
630023627 366.4 0
630023620 354.84 0
630023635 365.31 0
630023707 349.87 0
630023634 364.81 0
630023687 338.44 0
630023632 340.51 0
630023206 348.74 0
630023624 380.78 0
630023686 444.86 0
630023681 355.69 0
630023636 353.75 0
630023682 386.65 0
630023649 454.36 0
630023679 448.45 0
630023647 364.19 0
630023637 450.49 0
630023642 363.48 0
630023641 371.58 0
630023688 375.38 0
630023645 372.52 0
630023646 387.59 0
630023653 395.63 0
630023690 451.6 0
630023656 405.37 0
630023651 405.35 0
630023214 413.09 0
630023666 428.7 0
630023660 405.07 0
630023661 409.15 0
630023667 447.8 0
630023674 452.78 0
630023668 435.29 0
630023658 439.1 0
630023669 417.21 0
630023671 459.67 0
630023670 432.82 0
630023662 451.15 0
630023672 445.28 0
630023675 435.72 0
630023692 418.56 0
630023643 396.82 0
630023665 419.39 0
630023680 334.99 0
630023639 351.79 0
630023652 424.87 0
630023677 426.93 0
630023678 441.14 0
630023734 212.22 0
630023713 280.82 0
630023708 258.21 0
630023710 308.6 0
630023722 281.51 0
630023719 269.74 0
630023721 270.55 0
630023769 340.96 0
630023738 329.05 0
630023720 249.82 0
630023743 299.16 0
630023744 242.41 0
630023716 322.19 0
630023712 249.66 0
630023741 271.51 0
630023748 268.58 0
630023746 274.26 0
630023727 247.08 0
630023753 320.09 0
630023758 265.49 0
630023717 269.12 0
630023728 269.73 0
630023730 272.83 0
630023729 256.25 0
630023783 470.44 0
630023781 470.33 0
630023780 462.57 0
630023779 506.44 0
630023784 465 0
630023788 451.23 0
630023789 450.63 0
630023785 448.1 0
630023790 454.3 0
630023842 496.23 0
630023841 514.1 0
630023787 445.36 0
630023804 478.62 0
630023846 482.26 0
630023844 475.5 0
630023792 441.87 0
630023797 511.61 0
630023850 494.7 0
630023855 455.05 0
630023805 498.12 0
630023798 487.35 0
630023800 496.73 0
630023809 453.36 0
630023814 474.34 0
630023796 487.47 0
630023816 481.36 0
630023859 451.11 0
630023806 505.45 0
630023811 475.72 0
630023820 481.53 0
630023934 540.19 0
630023822 516.66 0
630023821 483.86 0
630023825 469 0
630023824 472.43 0
630023860 451.28 0
630023818 492.97 0
630023777 457.18 0
630023807 491.57 0
630023832 475.14 0
630023808 499.29 0
630023813 493.08 0
630023776 476.44 0
630023893 514.38 0
630023900 512.34 0
630023921 553.62 0
630023880 575.52 0
630023882 570.25 0
630023883 559.88 0
630023884 555 0
630023875 596.39 0
630023878 582.15 0
630023935 501.33 0
630023840 487.8 0
630023927 447.14 0
630023895 488.64 0
630023896 484.61 0
630023888 488.83 0
630023894 504.49 0
630023898 478.64 0
630023899 479.22 0
630023929 469.41 0
630023902 471.81 0
630023906 500.67 0
630023930 482 0
630023916 493.89 0
630023903 481.3 0
630023907 478.72 0
630023915 506.14 0
630023920 514.72 0
630023917 490.56 0
630023922 512.36 0
630023923 533.2 0
630023889 464.02 0
630023890 472.48 0
630023911 509.07 0
630023924 534.99 0
630023925 527.49 0
630023928 469.87 0
630023901 480.89 0
630023936 356.45 0
630023942 363.38 0
630023940 349.61 0
630023999 340.09 0
630023937 381.2 0
630023938 370.44 0
630023944 365.22 0
630023962 324.23 0
630023947 360.41 0
630023948 344.09 0
630023950 343.87 0
630023953 359.38 0
630023997 432.76 0
630023965 334.9 0
630023959 343.77 0
630023949 349.27 0
630023969 342.56 0
630023954 369.24 0
630024003 418.12 0
630024001 426.24 0
630023973 390.4 0
630023972 422.06 0
630023979 415.18 0
630023983 326.05 0
630024005 351.83 0
630023980 330.5 0
630023981 344.1 0
630023976 367 0
630023984 341.03 0
630023977 386.92 0
630024012 323.34 0
630024008 413.38 0
630023998 402.52 0
630023991 357.25 0
630024189 370.88 0
630023992 383.83 0
630023993 390.58 0
630024010 406.57 0
630023995 387.36 0
630023996 358.68 0
630023951 418.95 0
630023957 426.05 0
630023989 357.84 0
630023986 413.57 0
630023971 369.81 0
630024164 286.42 0
630024020 274.37 0
630024165 329.56 0
630024022 262.29 0
630024024 313.75 0
630024019 340.73 0
630024132 279.77 0
630024026 274.58 0
630024166 268.37 0
630024023 263.79 0
630024167 298.35 0
630047229 277.18 0
630024027 309.98 0
630024031 334.37 0
630024173 258.76 0
630024170 301.8 0
630024178 284.69 0
630024181 277.32 0
630024039 306.09 0
630024042 231.82 0
630024133 246 0
630024047 288.9 0
630024185 272.65 0
630024184 227.69 0
630024060 285.5 0
630024071 228.57 0
630024067 318.54 0
630024258 255.96 0
630024151 216.17 0
630024066 310.02 0
630024072 276.74 0
630024219 226 0
630024057 337.7 0
630024086 234.92 0
630024078 355.1 0
630024224 231.54 0
630024079 271.12 0
630024218 386.8 0
630024093 221.84 0
630024220 287.88 0
630024096 229.16 0
630024153 274.47 0
630024157 216.13 0
630024228 210.21 0
630024097 207.95 0
630024234 215.2 0
630024100 234.4 0
630024159 214.89 0
630024107 316.58 0
630024162 212.34 0
630024238 210.77 0
630024243 199.35 0
630024240 268.16 0
630024127 280.32 0
630047288 207.23 0
630024121 222.49 0
630024123 227.82 0
630024117 286.93 0
630024163 225.26 0
630024128 216.27 0
630024270 238.75 0
630024263 207.33 0
630024265 207.42 0
630024015 301.08 0
630024175 283.48 0
630024188 270.58 0
630024148 271.34 0
630024255 276.71 0
630024138 252 0
630024142 355.45 0
630024054 254.65 0
630024063 272.77 0
630024062 211.77 0
630024193 243.67 0
630024204 221.95 0
630024208 237.37 0
630024211 233.24 0
630024103 227.89 0
630024213 240.37 0
630024155 216.48 0
630024082 289.76 0
630024090 210.24 0
630024089 216.66 0
630024261 214.2 0
630024232 225.81 0
630024236 219.25 0
630024244 190.59 0
630024254 212.05 0
630024034 315.33 0
630024048 268.18 0
630024051 236.75 0
630024053 239.33 0
630024059 317.2 0
630024075 364.11 0
630024076 338.69 0
630024080 247.89 0
630024149 166.8 0
630024152 173.87 0
630024091 228.06 0
630024092 204.68 0
630024111 279.86 0
630024101 270.4 0
630024104 245.79 0
630024098 188.28 0
630024102 267.05 0
630024115 225.99 0
630024110 185.03 0
630024131 266.48 0
630024266 276.97 0
630024269 243.62 0
630024353 213.51 0
630024273 197.89 0
630047238 169.39 0
630047303 170.78 0
630024367 177.25 0
630024370 167.84 0
630024285 185.23 0
630024277 215.77 0
630024371 201.07 0
630024372 173.84 0
630024276 215.86 0
630024422 176.17 0
630024375 165.31 0
630024374 193.87 0
630024376 160.58 0
630024288 231.27 0
630024294 223.58 0
630024305 158.35 0
630024389 170.03 0
630024392 162.16 0
630024337 168.21 0
630024306 182.72 0
630024314 136.49 0
630024400 135.29 0
630024402 133.06 0
630024405 179.81 0
630024410 172.9 0
630024349 200.46 0
630024355 185.89 0
630024264 242.05 0
630024350 179.55 0
630024272 233.21 0
630024280 274.7 0
630024364 206.16 0
630024336 247.43 0
630024382 175.35 0
630024300 184.82 0
630024395 182.52 0
630024397 173.56 0
630024381 187.17 0
630024289 228.34 0
630024287 231.83 0
630024297 160.09 0
630024267 260.76 0
630024271 191.41 0
630024284 176.13 0
630024283 151.1 0
630024315 134.78 0
630024415 185.69 0
630024419 167.66 0
630024418 177.3 0
630024451 193.76 0
630024423 186 0
630024424 177.94 0
630024457 166.84 0
630024458 181.97 0
630024430 182.45 0
630024460 174.23 0
630024461 186.48 0
630024307 166.85 0
630024440 185.16 0
630024439 160.9 0
630024462 162.49 0
630047228 161.51 0
630047242 151.18 0
630024466 158.33 0
630047227 170.68 0
630024448 144.42 0
630024326 149.43 0
630024496 164.33 0
630024454 179.29 0
630024414 166.49 0
630024413 166.19 0
630024433 154.94 0
630024437 150.96 0
630024446 156.98 0
630024473 173.4 0
630024485 181.38 0
630024490 194.19 0
630024491 210.6 0
630024474 131.44 0
630024506 136.99 0
630024517 469.45 0
630024525 462.32 0
630024519 484.36 0
630024544 435.05 0
630024524 435.88 0
630024548 443.55 0
630024529 423.26 0
630024526 462.19 0
630024528 389.61 0
630024537 395.59 0
630024531 434.61 0
630024532 414.55 0
630024533 406.6 0
630024551 393.17 0
630024541 423.97 0
630024553 423.76 0
630024543 402.47 0
630024549 426.23 0
630024535 415.85 0
630024516 478.42 0
630024518 470.14 0
630024521 428.38 0
630024520 412.47 0
630024536 397.58 0
630024667 375.17 0
630024619 374.39 0
630024620 398.87 0
630024624 378.49 0
630024561 379.95 0
630024563 378.2 0
630024565 389.46 0
630024567 380.88 0
630024574 386.21 0
630024568 408.38 0
630024538 487.05 0
630024575 387.08 0
630024573 386.74 0
630024638 361.36 0
630024576 405.75 0
630024608 502.96 0
630024582 377.96 0
630024612 387.15 0
630024581 373.1 0