[TITLE]
Case-1 test data from SPRNT
[JUNCTIONS]
;ID Elev Demand
;--------------------------
2	0	0
3	0	0
4	0	0
5	0	0
6	0	0
7	0	0
8	0	0
9	0	0
10	0	0
11	0	0
12	0	0
13	0	0
14	0	0
15	0	0
16	0	0
17	0	0
18	0	0
19	0	0
20	0	0
21	0	0
22	0	0
23	0	0
24	0	0
25	0	0
26	0	0
27	0	0
28	0	0
29	0	0
30	0	0
31	0	0
32	0	0
33	0	0
34	0	0
35	0	0
36	0	0
37	0	0
38	0	0
39	0	0
40	0	0
41	0	0
42	0	0
43	0	0
44	0	0
45	0	0
46	0	0
47	0	0
48	0	0
49	0	0
50	0	0
51	0	0
52	0	0
53	0	0
54	0	0
55	0	0
56	0	0
57	0	0
58	0	0
59	0	0
60	0	0
61	0	0
62	0	0
63	0	0
64	0	0
65	0	0
66	0	0
67	0	0
68	0	0
69	0	0
70	0	0
[INFLOWS]
;ID FLOW
;---------
1 1.25
[STAGES]
;ID Head
;---------
71 4
[PIPES]
;ID Node1 Node2 Length Width Roughness Slope qInitial hInitial 
;---------------------------------------------------------------
1	1	2	80	20	0.0035	0.0025	0	4
2	2	3	80	20	0.0035	0.0025	0	4
3	3	4	80	20	0.0035	0.0025	0	4
4	4	5	80	20	0.0035	0.0025	0	4
5	5	6	80	20	0.0035	0.0025	0	4
6	6	7	80	20	0.0035	0.0025	0	4
7	7	8	80	20	0.0035	0.0025	0	4
8	8	9	80	20	0.0035	0.0025	0	4
9	9	10	80	20	0.0035	0.0025	0	4
10	10	11	80	20	0.0035	0.0025	0	4
11	11	12	80	20	0.0035	0.0025	0	4
12	12	13	80	20	0.0035	0.0025	0	4
13	13	14	80	20	0.0035	0.0025	0	4
14	14	15	80	20	0.0035	0.0025	0	4
15	15	16	80	20	0.0035	0.0025	0	4
16	16	17	80	20	0.0035	0.0025	0	4
17	17	18	80	20	0.0035	0.0025	0	4
18	18	19	80	20	0.0035	0.0025	0	4
19	19	20	80	20	0.0035	0.0025	0	4
20	20	21	80	20	0.0035	0.0025	0	4
21	21	22	80	20	0.0035	0.0025	0	4
22	22	23	80	20	0.0035	0.0025	0	4
23	23	24	80	20	0.0035	0.0025	0	4
24	24	25	80	20	0.0035	0.0025	0	4
25	25	26	80	20	0.0035	0.0025	0	4
26	26	27	80	20	0.0035	0.0025	0	4
27	27	28	80	20	0.0035	0.0025	0	4
28	28	29	80	20	0.0035	0.0025	0	4
29	29	30	80	20	0.0035	0.0025	0	4
30	30	31	80	20	0.0035	0.0025	0	4
31	31	32	80	20	0.0035	0.0025	0	4
32	32	33	80	20	0.0035	0.0025	0	4
33	33	34	80	20	0.0035	0.0025	0	4
34	34	35	80	20	0.0035	0.0025	0	4
35	35	36	80	20	0.0035	0.0025	0	4
36	36	37	80	20	0.0035	0.0025	0	4
37	37	38	80	20	0.0035	0.0025	0	4
38	38	39	80	20	0.0035	0.0025	0	4
39	39	40	80	20	0.0035	0.0025	0	4
40	40	41	80	20	0.0035	0.0025	0	4
41	41	42	80	20	0.0035	0.0025	0	4
42	42	43	80	20	0.0035	0.0025	0	4
43	43	44	80	20	0.0035	0.0025	0	4
44	44	45	80	20	0.0035	0.0025	0	4
45	45	46	80	20	0.0035	0.0025	0	4
46	46	47	80	20	0.0035	0.0025	0	4
47	47	48	80	20	0.0035	0.0025	0	4
48	48	49	80	20	0.0035	0.0025	0	4
49	49	50	80	20	0.0035	0.0025	0	4
50	50	51	80	20	0.0035	0.0025	0	4
51	51	52	80	20	0.0035	0.0025	0	4
52	52	53	80	20	0.0035	0.0025	0	4
53	53	54	80	20	0.0035	0.0025	0	4
54	54	55	80	20	0.0035	0.0025	0	4
55	55	56	80	20	0.0035	0.0025	0	4
56	56	57	80	20	0.0035	0.0025	0	4
57	57	58	80	20	0.0035	0.0025	0	4
58	58	59	80	20	0.0035	0.0025	0	4
59	59	60	80	20	0.0035	0.0025	0	4
60	60	61	80	20	0.0035	0.0025	0	4
61	61	62	80	20	0.0035	0.0025	0	4
62	62	63	80	20	0.0035	0.0025	0	4
63	63	64	80	20	0.0035	0.0025	0	4
64	64	65	80	20	0.0035	0.0025	0	4
65	65	66	80	20	0.0035	0.0025	0	4
66	66	67	80	20	0.0035	0.0025	0	4
67	67	68	80	20	0.0035	0.0025	0	4
68	68	69	80	20	0.0035	0.0025	0	4
69	69	70	80	20	0.0035	0.0025	0	4
70	70	71	80	20	0.0035	0.0025	0	4

[END]
